%chk=ISOPFMS_ADMP TRJTRY RSTF=10_600K.chk
%mem=8GB
%nprocshared=8
# B3LYP/6-31G(d) ADMP int=ultrafine

ISOPFMS ADMP thermal decomposition simulation targeting 600K

0 1
C      -1.593284     -0.345470      0.178720
F      -2.960508     -0.393190      0.149560
F      -1.246140      0.616114      1.083092
F      -1.175700     -0.029778     -1.115527
O      -1.043620     -1.572770      0.478941
S       0.830836     -0.516509      0.289588
O       1.301694     -0.577575     -1.199750
O       1.785716     -0.170193      1.370073
O       0.594053      1.863161      0.690133
H       2.142143     -0.537138      0.186475
H       0.987179      0.085346     -1.881583
H       0.377632      1.578002     -0.229722

