%chk=CF2O_1000K_step0040.chk
%mem=8GB
%nprocshared=4
# B3LYP/6-31G(d) pop=full density=current

CF2O Time step 40

0 1
F       1.220244     -0.582100      0.053507
C       0.101096      0.076668     -0.085483
O       0.000105      1.347366     -0.074038
F      -1.284188     -0.600684      0.062820

