%chk=PFMS_1000K_step0020.chk
%mem=8GB
%nprocshared=4
# B3LYP/6-31G(d) pop=full density=current

PFMS Time step 20

0 1
C      -0.915901      0.012208     -0.231681
F      -1.061720      0.169755     -1.612062
F      -1.571168      1.048802      0.355623
F      -1.664902     -1.138809      0.063629
S       0.853320     -0.165224      0.267075
O       1.005293     -0.173854      1.722034
O       1.547534     -1.066620     -0.541112
O       1.420636      1.346010     -0.175185
H       1.790353      1.917944      0.809695

