%mem=8GB
%nprocshared=8
# B3LYP/6-31G(d) ADMP int=ultrafine

CH3Br ADMP thermal decomposition simulation targeting 600K

0 1
C      -0.183823     -0.002558     -0.003722
Br      1.750510      0.024363      0.035444
H      -0.497363     -0.766120     -0.717070
H      -0.529872      0.984253     -0.314612
H      -0.539452     -0.239938      0.999960

