%mem=8GB
%nprocshared=8
# B3LYP/6-31G(d) ADMP int=ultrafine

CH3F ADMP thermal decomposition simulation targeting 600K

0 1
C      -0.060274     -0.005862     -0.005064
F       1.285338      0.125021      0.107982
H      -0.482121     -0.165423      0.989291
H      -0.466063      0.907685     -0.444294
H      -0.276881     -0.861420     -0.647915

