%mem=8GB
%nprocshared=8
# B3LYP/6-31G(d) ADMP int=ultrafine

SO3 ADMP thermal decomposition simulation targeting 600K

0 1
S       0.035743      0.057933     -0.609424
O      -0.671994      1.260197      0.286060
O       1.426147     -0.095138      0.280275
O      -0.789896     -1.222992      0.043089

