%mem=8GB
%nprocshared=8
# B3LYP/6-31G(d) ADMP int=ultrafine

TS3M_Product1 ADMP thermal decomposition simulation targeting 600K

0 2
O      -1.225862     -0.880888     -0.490424
S      -0.546617      0.037158      0.492380
O       1.037334     -0.404294      0.421412
O      -0.538941      1.489989      0.093245
H       1.274086     -0.241964     -0.516613

