%chk=PFMS_1000K_step0035.chk
%mem=8GB
%nprocshared=4
# B3LYP/6-31G(d) pop=full density=current

PFMS Time step 35

0 1
C      -0.915228      0.025929     -0.220787
F      -1.056889      0.161500     -1.621726
F      -1.585232      1.050550      0.354411
F      -1.677668     -1.147627      0.060444
S       0.855344     -0.176994      0.270378
O       1.022035     -0.179807      1.729043
O       1.530192     -1.046415     -0.538244
O       1.442372      1.360662     -0.184311
H       1.797386      1.958101      0.828328

