%chk=PFMS_1000K_step0005.chk
%mem=8GB
%nprocshared=4
# B3LYP/6-31G(d) pop=full density=current

PFMS Time step 5

0 1
C      -0.923530     -0.002367     -0.245528
F      -1.065534      0.177862     -1.599953
F      -1.555591      1.045872      0.356411
F      -1.650091     -1.128157      0.066639
S       0.851939     -0.150729      0.266009
O       0.987194     -0.168535      1.714769
O       1.566099     -1.090598     -0.547432
O       1.399780      1.333744     -0.161838
H       1.747636      1.824061      0.712309

