%mem=3GB
%nprocshared=4
# opt=(maxcyc=999,noeigen) freq m062x/def2tzvp geom=connectivity int=ultrafine scf=(tight,xqc)

CF2O optimization

0 1
F       1.155557     -0.640897      0.137266
C       0.000107      0.027733      0.094070
O       0.004800      1.244645      0.008578
F      -1.160464     -0.631481      0.144161

1 2 1.0
2 3 1.0 4 1.0
3
4

