%mem=3GB
%nprocshared=4
# opt=(maxcyc=999,noeigen) freq m062x/def2tzvp geom=connectivity int=ultrafine scf=(tight,xqc)

CH3 optimization

0 2
C      -0.000000      0.000000      0.000000
H       1.041297     -0.224293      0.193155
H      -0.708913     -0.804912     -0.146538
H      -0.332384      1.029205     -0.046617

1 2 1.0 3 1.0 4 1.0
2
3
4

