%mem=3GB
%nprocshared=4
# opt=(maxcyc=999,noeigen) freq m062x/def2tzvp geom=connectivity int=ultrafine scf=(tight,xqc)

HCF3 optimization

0 1
C       0.003939     -0.000324      0.071647
F       1.108205     -0.550870     -0.476188
F      -0.109833      1.259146     -0.401023
F      -1.066249     -0.702686     -0.357321
H       0.063937     -0.005266      1.162885

1 2 1.0 3 1.0 4 1.0 5 1.0
2
3
4
5

