%mem=3GB
%nprocshared=4
# opt=(maxcyc=999,noeigen) freq m062x/def2tzvp geom=connectivity int=ultrafine scf=(tight,xqc)

SO3 optimization

0 1
S       0.035743      0.057933     -0.609424
O      -0.671994      1.260197      0.286060
O       1.426147     -0.095138      0.280275
O      -0.789896     -1.222992      0.043089

1 2 1.0 3 1.0 4 1.0
2
3
4

