%chk=PFMS_1200K_step0044.chk
%mem=8GB
%nprocshared=4
# B3LYP/6-31G(d) pop=full density=current

PFMS Time step 44

0 1
C      -0.918524      0.033206     -0.216194
F      -1.053467      0.156550     -1.626092
F      -1.592874      1.051057      0.353507
F      -1.684189     -1.151839      0.058526
S       0.856572     -0.181932      0.273882
O       1.031342     -0.183699      1.732938
O       1.521169     -1.037298     -0.539152
O       1.455780      1.370474     -0.187146
H       1.782831      1.952623      0.795602

