%chk=PFMS_1200K_step0086.chk
%mem=8GB
%nprocshared=4
# B3LYP/6-31G(d) pop=full density=current

PFMS Time step 86

0 1
C      -0.967633      0.051893     -0.216031
F      -1.032749      0.134289     -1.630556
F      -1.621371      1.048896      0.347418
F      -1.702941     -1.158931      0.049354
S       0.860079     -0.179840      0.307857
O       1.067703     -0.204670      1.747382
O       1.497129     -1.030222     -0.575874
O       1.513766      1.411762     -0.192111
H       1.640615      1.823063      0.520022

