%chk=PFMS_1200K_step0082.chk
%mem=8GB
%nprocshared=4
# B3LYP/6-31G(d) pop=full density=current

PFMS Time step 82

0 1
C      -0.960924      0.051457     -0.214490
F      -1.035010      0.136314     -1.631285
F      -1.619092      1.049337      0.348106
F      -1.701960     -1.159176      0.050224
S       0.859875     -0.181735      0.303624
O       1.064712     -0.202515      1.746184
O       1.498304     -1.028569     -0.570278
O       1.509315      1.409905     -0.189581
H       1.647818      1.815541      0.510428

