%chk=PFMS_1200K_step0090.chk
%mem=8GB
%nprocshared=4
# B3LYP/6-31G(d) pop=full density=current

PFMS Time step 90

0 1
C      -0.974688      0.051983     -0.217897
F      -1.030437      0.132294     -1.629569
F      -1.623578      1.048427      0.346708
F      -1.703749     -1.158485      0.048484
S       0.860283     -0.177649      0.312181
O       1.070608     -0.206857      1.748595
O       1.496089     -1.032232     -0.581768
O       1.517919      1.412910     -0.195477
H       1.635915      1.838940      0.543985

