%chk=PFMS_1200K_step0138.chk
%mem=8GB
%nprocshared=4
# B3LYP/6-31G(d) pop=full density=current

PFMS Time step 138

0 1
C      -1.071183      0.026597     -0.258951
F      -1.000753      0.111210     -1.601368
F      -1.647244      1.042289      0.336773
F      -1.703500     -1.139409      0.038211
S       0.866774     -0.137528      0.358787
O       1.099749     -0.234677      1.769175
O       1.483906     -1.068130     -0.658909
O       1.555432      1.412326     -0.228442
H       1.596308      2.042467      0.824435

