%chk=PFMS_1200K_step0108.chk
%mem=8GB
%nprocshared=4
# B3LYP/6-31G(d) pop=full density=current

PFMS Time step 108

0 1
C      -1.009444      0.048032     -0.229801
F      -1.019556      0.123731     -1.622265
F      -1.632866      1.046124      0.343271
F      -1.705571     -1.154104      0.044631
S       0.861602     -0.164945      0.331788
O       1.082609     -0.217000      1.754550
O       1.492215     -1.044322     -0.610642
O       1.534157      1.413321     -0.213847
H       1.625528      1.951539      0.718719

