%chk=PFMS_1200K_step0198.chk
%mem=8GB
%nprocshared=4
# B3LYP/6-31G(d) pop=full density=current

PFMS Time step 198

0 1
C      -1.159665     -0.034962     -0.310939
F      -0.966803      0.093400     -1.550482
F      -1.677925      1.034880      0.318222
F      -1.696634     -1.103343      0.027770
S       0.892195     -0.085109      0.366828
O       1.127787     -0.269229      1.817940
O       1.442191     -1.090596     -0.714707
O       1.577278      1.400170     -0.203638
H       1.522676      2.005888      0.493587

