%chk=PFMS_1200K_step0072.chk
%mem=8GB
%nprocshared=4
# B3LYP/6-31G(d) pop=full density=current

PFMS Time step 72

0 1
C      -0.945753      0.049045     -0.212051
F      -1.040440      0.141471     -1.632064
F      -1.613045      1.050272      0.349739
F      -1.698816     -1.158956      0.052402
S       0.859307     -0.185047      0.293739
O       1.056837     -0.197241      1.743109
O       1.502071     -1.026349     -0.557969
O       1.496750      1.402110     -0.187159
H       1.678945      1.835118      0.552789

