%chk=PFMS_1200K_step0146.chk
%mem=8GB
%nprocshared=4
# B3LYP/6-31G(d) pop=full density=current

PFMS Time step 146

0 1
C      -1.086913      0.018385     -0.267640
F      -0.995820      0.108262     -1.594487
F      -1.651074      1.041349      0.334835
F      -1.702277     -1.134356      0.036518
S       0.869006     -0.129747      0.363689
O       1.103860     -0.239474      1.774458
O       1.480520     -1.073817     -0.670272
O       1.559941      1.412688     -0.227288
H       1.585889      2.032111      0.789298

