%chk=PFMS_1200K_step0194.chk
%mem=8GB
%nprocshared=4
# B3LYP/6-31G(d) pop=full density=current

PFMS Time step 194

0 1
C      -1.156529     -0.032104     -0.309191
F      -0.968820      0.094277     -1.553230
F      -1.675718      1.035476      0.319815
F      -1.696546     -1.104960      0.028155
S       0.889920     -0.087889      0.368170
O       1.126119     -0.267142      1.814542
O       1.446130     -1.090802     -0.713298
O       1.576501      1.404213     -0.203215
H       1.528562      1.968729      0.469609

