%chk=PFMS_1200K_step0074.chk
%mem=8GB
%nprocshared=4
# B3LYP/6-31G(d) pop=full density=current

PFMS Time step 74

0 1
C      -0.948582      0.049698     -0.212368
F      -1.039379      0.140427     -1.632037
F      -1.614300      1.050107      0.349425
F      -1.699531     -1.159109      0.051968
S       0.859426     -0.184553      0.295625
O       1.058461     -0.198284      1.743743
O       1.501217     -1.026567     -0.560230
O       1.499424      1.403999     -0.187256
H       1.671344      1.827373      0.537670

