%chk=PFMS_1200K_step0176.chk
%mem=8GB
%nprocshared=4
# B3LYP/6-31G(d) pop=full density=current

PFMS Time step 176

0 1
C      -1.136691     -0.015273     -0.297241
F      -0.978330      0.098777     -1.567580
F      -1.666105      1.037880      0.326259
F      -1.697661     -1.114578      0.030671
S       0.880629     -0.101998      0.371265
O       1.118254     -0.257216      1.798720
O       1.461896     -1.088416     -0.702702
O       1.572125      1.414295     -0.208340
H       1.550223      1.911681      0.494963

