%chk=PFMS_1200K_step0070.chk
%mem=8GB
%nprocshared=4
# B3LYP/6-31G(d) pop=full density=current

PFMS Time step 70

0 1
C      -0.943023      0.048336     -0.211809
F      -1.041486      0.142517     -1.632033
F      -1.611768      1.050424      0.350050
F      -1.698058     -1.158758      0.052836
S       0.859181     -0.185451      0.291904
O       1.055187     -0.196209      1.742465
O       1.502982     -1.026254     -0.555818
O       1.494009      1.400104     -0.187186
H       1.686997      1.844035      0.570026

