%chk=PFMS_1200K_step0062.chk
%mem=8GB
%nprocshared=4
# B3LYP/6-31G(d) pop=full density=current

PFMS Time step 62

0 1
C      -0.933220      0.044790     -0.211676
F      -1.045496      0.146769     -1.631312
F      -1.606435      1.050909      0.351233
F      -1.694597     -1.157489      0.054593
S       0.858590     -0.186144      0.285121
O       1.048341     -0.192162      1.739807
O       1.507268     -1.027128     -0.548376
O       1.482564      1.391248     -0.187867
H       1.721141      1.885228      0.649496

