%chk=PFMS_1200K_step0120.chk
%mem=8GB
%nprocshared=4
# B3LYP/6-31G(d) pop=full density=current

PFMS Time step 120

0 1
C      -1.034156      0.041596     -0.240468
F      -1.012064      0.118434     -1.615030
F      -1.638675      1.044533      0.340810
F      -1.705376     -1.149221      0.042054
S       0.863122     -0.154563      0.343950
O       1.089825     -0.223967      1.759500
O       1.489531     -1.053931     -0.630617
O       1.543488      1.412564     -0.223196
H       1.616112      2.011675      0.805307

