%chk=PFMS_1200K_step0064.chk
%mem=8GB
%nprocshared=4
# B3LYP/6-31G(d) pop=full density=current

PFMS Time step 64

0 1
C      -0.935464      0.045790     -0.211572
F      -1.044524      0.145697     -1.631590
F      -1.607810      1.050808      0.350946
F      -1.695536     -1.157885      0.054152
S       0.858755     -0.186109      0.286724
O       1.050087     -0.193165      1.740491
O       1.506096     -1.026718     -0.550052
O       1.485477      1.393550     -0.187670
H       1.712565      1.874613      0.628983

