%chk=PFMS_1200K_step0122.chk
%mem=8GB
%nprocshared=4
# B3LYP/6-31G(d) pop=full density=current

PFMS Time step 122

0 1
C      -1.038345      0.040226     -0.242414
F      -1.010801      0.117588     -1.613657
F      -1.639622      1.044276      0.340385
F      -1.705242     -1.148267      0.041626
S       0.863438     -0.152733      0.345830
O       1.090977     -0.225143      1.760428
O       1.489027     -1.055560     -0.633901
O       1.544937      1.412469     -0.224316
H       1.614218      2.018755      0.814232

