%chk=PFMS_1200K_step0126.chk
%mem=8GB
%nprocshared=4
# B3LYP/6-31G(d) pop=full density=current

PFMS Time step 126

0 1
C      -1.046647      0.037215     -0.246399
F      -1.008283      0.115936     -1.610799
F      -1.641533      1.043770      0.339515
F      -1.704919     -1.146238      0.040775
S       0.864139     -0.149008      0.349432
O       1.093239     -0.227506      1.762378
O       1.487938     -1.058804     -0.640384
O       1.547737      1.412316     -0.226159
H       1.610206      2.030266      0.827170

