%chk=PFMS_1200K_step0166.chk
%mem=8GB
%nprocshared=4
# B3LYP/6-31G(d) pop=full density=current

PFMS Time step 166

0 1
C      -1.122072     -0.004186     -0.288325
F      -0.983952      0.101673     -1.576456
F      -1.660966      1.039066      0.329385
F      -1.699007     -1.120986      0.032477
S       0.876181     -0.110813      0.370624
O       1.113643     -0.251421      1.790044
O       1.469180     -1.084927     -0.693835
O       1.568885      1.414489     -0.215900
H       1.560734      1.952734      0.600441

