%chk=PFMS_1200K_step0154.chk
%mem=8GB
%nprocshared=4
# B3LYP/6-31G(d) pop=full density=current

PFMS Time step 154

0 1
C      -1.101807      0.009566     -0.276175
F      -0.990975      0.105500     -1.587350
F      -1.654978      1.040446      0.332764
F      -1.700952     -1.129068      0.034862
S       0.871605     -0.122046      0.367388
O       1.107849     -0.244275      1.780294
O       1.476500     -1.078844     -0.680566
O       1.563929      1.413343     -0.224039
H       1.575253      2.007757      0.728468

