%chk=PFMS_1200K_step0158.chk
%mem=8GB
%nprocshared=4
# B3LYP/6-31G(d) pop=full density=current

PFMS Time step 158

0 1
C      -1.108821      0.005010     -0.280353
F      -0.988610      0.104184     -1.583723
F      -1.656961      1.039989      0.331679
F      -1.700296     -1.126374      0.034048
S       0.873036     -0.118243      0.368773
O       1.109813     -0.246667      1.783437
O       1.474235     -1.081083     -0.685292
O       1.565719      1.413746     -0.221675
H       1.570151      1.991093      0.689331

