%chk=PFMS_1200K_step0192.chk
%mem=8GB
%nprocshared=4
# B3LYP/6-31G(d) pop=full density=current

PFMS Time step 192

0 1
C      -1.154775     -0.030545     -0.308188
F      -0.969842      0.094736     -1.554672
F      -1.674624      1.035763      0.320588
F      -1.696553     -1.105844      0.028375
S       0.888811     -0.089334      0.368764
O       1.125270     -0.266078      1.812804
O       1.448042     -1.090798     -0.712463
O       1.576084      1.406059     -0.203127
H       1.531376      1.952347      0.460172

