%chk=PFMS_1200K_step0028.chk
%mem=8GB
%nprocshared=4
# B3LYP/6-31G(d) pop=full density=current

PFMS Time step 28

0 1
C      -0.914517      0.019759     -0.225398
F      -1.059286      0.165355     -1.617577
F      -1.578884      1.049886      0.355031
F      -1.672010     -1.143790      0.061937
S       0.854369     -0.171987      0.268465
O       1.014409     -0.176938      1.725854
O       1.537992     -1.055167     -0.538985
O       1.432095      1.353516     -0.180696
H       1.799038      1.947025      0.830896

