%chk=PFMS_1200K_step0012.chk
%mem=8GB
%nprocshared=4
# B3LYP/6-31G(d) pop=full density=current

PFMS Time step 12

0 1
C      -0.919169      0.004402     -0.238779
F      -1.063885      0.174099     -1.605850
F      -1.563058      1.047398      0.356106
F      -1.657230     -1.133301      0.065243
S       0.852462     -0.157669      0.266334
O       0.995785     -0.170972      1.718140
O       1.557429     -1.079152     -0.544214
O       1.409409      1.339154     -0.168559
H       1.771829      1.873914      0.766943

