%chk=PFMS_1200K_step0106.chk
%mem=8GB
%nprocshared=4
# B3LYP/6-31G(d) pop=full density=current

PFMS Time step 106

0 1
C      -1.005389      0.048819     -0.228227
F      -1.020797      0.124644     -1.623289
F      -1.631876      1.046392      0.343670
F      -1.705506     -1.154776      0.045058
S       0.861409     -0.166552      0.329646
O       1.081347     -0.215854      1.753827
O       1.492626     -1.042794     -0.607315
O       1.532497      1.413449     -0.211926
H       1.626717      1.939079      0.699832

