%chk=PFMS_1200K_step0066.chk
%mem=8GB
%nprocshared=4
# B3LYP/6-31G(d) pop=full density=current

PFMS Time step 66

0 1
C      -0.937863      0.046723     -0.211564
F      -1.043528      0.144628     -1.631802
F      -1.609153      1.050692      0.350655
F      -1.696422     -1.158229      0.053712
S       0.858906     -0.185981      0.288393
O       1.051810     -0.194173      1.741158
O       1.504993     -1.026439     -0.551856
O       1.488362      1.395807     -0.187471
H       1.703931      1.864032      0.608581

