%chk=PFMS_1200K_step0128.chk
%mem=8GB
%nprocshared=4
# B3LYP/6-31G(d) pop=full density=current

PFMS Time step 128

0 1
C      -1.050774      0.035591     -0.248433
F      -1.007026      0.115125     -1.609312
F      -1.642487      1.043523      0.339073
F      -1.704726     -1.145170      0.040345
S       0.864523     -0.147120      0.351146
O       1.094352     -0.228693      1.763408
O       1.487348     -1.060406     -0.643572
O       1.549090      1.412265     -0.226879
H       1.608069      2.034636      0.831064

