%chk=PFMS_1200K_step0058.chk
%mem=8GB
%nprocshared=4
# B3LYP/6-31G(d) pop=full density=current

PFMS Time step 58

0 1
C      -0.929061      0.042619     -0.212122
F      -1.047392      0.148918     -1.630573
F      -1.603616      1.051056      0.351784
F      -1.692588     -1.156551      0.055470
S       0.858212     -0.185914      0.282140
O       1.044767     -0.190192      1.738377
O       1.509837     -1.028382     -0.545431
O       1.476680      1.386585     -0.188161
H       1.737665      1.905456      0.689113

