%chk=PFMS_1200K_step0052.chk
%mem=8GB
%nprocshared=4
# B3LYP/6-31G(d) pop=full density=current

PFMS Time step 52

0 1
C      -0.923753      0.038906     -0.213402
F      -1.050105      0.152180     -1.629018
F      -1.599180      1.051164      0.352564
F      -1.689260     -1.154819      0.056795
S       0.857566     -0.184793      0.278196
O       1.039180     -0.187333      1.736121
O       1.514258     -1.031365     -0.541996
O       1.467754      1.379589     -0.188169
H       1.759885      1.930898      0.741914

