%chk=PFMS_1200K_step0034.chk
%mem=8GB
%nprocshared=4
# B3LYP/6-31G(d) pop=full density=current

PFMS Time step 34

0 1
C      -0.915016      0.025076     -0.221386
F      -1.057248      0.162052     -1.621175
F      -1.584349      1.050469      0.354503
F      -1.676894     -1.147110      0.060658
S       0.855203     -0.176332      0.270067
O       1.020965     -0.179392      1.728594
O       1.531272     -1.047589     -0.538282
O       1.440893      1.359612     -0.183870
H       1.798146      1.957342      0.829919

