%chk=PFMS_1200K_step0174.chk
%mem=8GB
%nprocshared=4
# B3LYP/6-31G(d) pop=full density=current

PFMS Time step 174

0 1
C      -1.133951     -0.013111     -0.295565
F      -0.979436      0.099329     -1.569318
F      -1.665067      1.038122      0.326904
F      -1.697897     -1.115817      0.031013
S       0.879694     -0.103708      0.371282
O       1.117348     -0.256072      1.796968
O       1.463438     -1.087840     -0.701105
O       1.571536      1.414529     -0.209736
H       1.552277      1.917601      0.513259

