%chk=PFMS_1200K_step0100.chk
%mem=8GB
%nprocshared=4
# B3LYP/6-31G(d) pop=full density=current

PFMS Time step 100

0 1
C      -0.993489      0.050640     -0.223876
F      -1.024478      0.127451     -1.626055
F      -1.628847      1.047186      0.344849
F      -1.705112     -1.156528      0.046348
S       0.860916     -0.171098      0.323107
O       1.077453     -0.212448      1.751791
O       1.493851     -1.038437     -0.597444
O       1.527336      1.413710     -0.205745
H       1.629796      1.899389      0.638667

