%chk=PFMS_1200K_step0022.chk
%mem=8GB
%nprocshared=4
# B3LYP/6-31G(d) pop=full density=current

PFMS Time step 22

0 1
C      -0.915352      0.014122     -0.230020
F      -1.061140      0.168662     -1.613518
F      -1.573135      1.049105      0.355486
F      -1.666740     -1.140111      0.063215
S       0.853572     -0.167010      0.267346
O       1.007610     -0.174599      1.723002
O       1.545094     -1.063622     -0.540464
O       1.423474      1.347820     -0.176677
H       1.793520      1.926724      0.817195

