%chk=PFMS_1200K_step0054.chk
%mem=8GB
%nprocshared=4
# B3LYP/6-31G(d) pop=full density=current

PFMS Time step 54

0 1
C      -0.925368      0.040193     -0.212890
F      -1.049224      0.151093     -1.629600
F      -1.600692      1.051144      0.352309
F      -1.690418     -1.155441      0.056353
S       0.857790     -0.185267      0.279448
O       1.041073     -0.188275      1.736884
O       1.512711     -1.030228     -0.543015
O       1.470741      1.381915     -0.188235
H       1.752886      1.923199      0.725338

