%chk=PFMS_1200K_step0162.chk
%mem=8GB
%nprocshared=4
# B3LYP/6-31G(d) pop=full density=current

PFMS Time step 162

0 1
C      -1.115616      0.000400     -0.284412
F      -0.986267      0.102907     -1.580083
F      -1.658946      1.039532      0.330554
F      -1.699636     -1.123666      0.033247
S       0.874559     -0.114492      0.369851
O       1.111747     -0.249054      1.786695
O       1.471801     -1.083117     -0.689719
O       1.567369      1.414149     -0.218928
H       1.565301      1.972427      0.646094

