%chk=PFMS_1200K_step0092.chk
%mem=8GB
%nprocshared=4
# B3LYP/6-31G(d) pop=full density=current

PFMS Time step 92

0 1
C      -0.978305      0.051926     -0.218946
F      -1.029268      0.131305     -1.628985
F      -1.624663      1.048178      0.346343
F      -1.704102     -1.158196      0.048055
S       0.860397     -0.176454      0.314355
O       1.072023     -0.207963      1.749214
O       1.495604     -1.033349     -0.584803
O       1.519898      1.413261     -0.197391
H       1.634253      1.849311      0.560132

