%chk=PFMS_1200K_step0142.chk
%mem=8GB
%nprocshared=4
# B3LYP/6-31G(d) pop=full density=current

PFMS Time step 142

0 1
C      -1.079115      0.022603     -0.263290
F      -0.998281      0.109709     -1.597972
F      -1.649158      1.041805      0.335817
F      -1.702911     -1.136917      0.037360
S       0.867844     -0.133638      0.361380
O       1.101825     -0.237076      1.771745
O       1.482286     -1.071041     -0.664706
O       1.557748      1.412464     -0.228135
H       1.591173      2.039172      0.810230

