%chk=PFMS_1200K_step0168.chk
%mem=8GB
%nprocshared=4
# B3LYP/6-31G(d) pop=full density=current

PFMS Time step 168

0 1
C      -1.125168     -0.006443     -0.290216
F      -0.982807      0.101069     -1.574649
F      -1.661984      1.038831      0.328781
F      -1.698711     -1.119672      0.032102
S       0.877026     -0.109001      0.370899
O       1.114580     -0.252596      1.791755
O       1.467805     -1.085746     -0.695779
O       1.569593      1.414605     -0.214332
H       1.558552      1.942956      0.577475

