%chk=PFMS_1200K_step0002.chk
%mem=8GB
%nprocshared=4
# B3LYP/6-31G(d) pop=full density=current

PFMS Time step 2

0 1
C      -0.925699     -0.005241     -0.248543
F      -1.066206      0.179443     -1.597304
F      -1.552334      1.045146      0.356522
F      -1.646940     -1.125864      0.067220
S       0.851805     -0.147630      0.265921
O       0.983421     -0.167531      1.713345
O       1.569818     -1.095649     -0.548922
O       1.395688      1.331525     -0.158723
H       1.735407      1.800024      0.684843

