%chk=PFMS_1200K_step0060.chk
%mem=8GB
%nprocshared=4
# B3LYP/6-31G(d) pop=full density=current

PFMS Time step 60

0 1
C      -0.931098      0.043735     -0.211863
F      -1.046449      0.147841     -1.630972
F      -1.605035      1.050991      0.351513
F      -1.693611     -1.157044      0.055032
S       0.858408     -0.186082      0.283592
O       1.046569     -0.191170      1.739102
O       1.508514     -1.027680     -0.546835
O       1.479630      1.388921     -0.188036
H       1.729538      1.895586      0.669651

