%chk=PFMS_1200K_step0188.chk
%mem=8GB
%nprocshared=4
# B3LYP/6-31G(d) pop=full density=current

PFMS Time step 188

0 1
C      -1.150932     -0.027144     -0.305904
F      -0.971906      0.095690     -1.557689
F      -1.672458      1.036321      0.322083
F      -1.696662     -1.107780      0.028866
S       0.886653     -0.092325      0.369781
O       1.123554     -0.263915      1.809294
O       1.451746     -1.090587     -0.710536
O       1.575197      1.409282     -0.203349
H       1.536724      1.925919      0.448827

