%chk=PFMS_1200K_step0000.chk
%mem=8GB
%nprocshared=4
# B3LYP/6-31G(d) pop=full density=current

PFMS Time step 0

0 1
C      -0.927461     -0.007308     -0.250741
F      -1.066611      0.180515     -1.595459
F      -1.550095      1.044653      0.356605
F      -1.644754     -1.124269      0.067626
S       0.851746     -0.145489      0.265888
O       0.980867     -0.166886      1.712394
O       1.572308     -1.099093     -0.549951
O       1.392964      1.330076     -0.156572
H       1.726694      1.783207      0.665326

