%chk=PFMS_1200K_step0014.chk
%mem=8GB
%nprocshared=4
# B3LYP/6-31G(d) pop=full density=current

PFMS Time step 14

0 1
C      -0.918166      0.006362     -0.236921
F      -1.063375      0.173014     -1.607462
F      -1.565137      1.047785      0.355996
F      -1.659199     -1.134719      0.064838
S       0.852654     -0.159606      0.266472
O       0.998197     -0.171680      1.719116
O       1.554946     -1.075952     -0.543371
O       1.412194      1.340797     -0.170322
H       1.777406      1.886314      0.779680

