%chk=PFMS_1200K_step0038.chk
%mem=8GB
%nprocshared=4
# B3LYP/6-31G(d) pop=full density=current

PFMS Time step 38

0 1
C      -0.916007      0.028439     -0.219095
F      -1.055795      0.159846     -1.623295
F      -1.587849      1.050760      0.354125
F      -1.679938     -1.149116      0.059800
S       0.855759     -0.178853      0.271400
O       1.025202     -0.181071      1.730376
O       1.527042     -1.043080     -0.538290
O       1.446825      1.363870     -0.185483
H       1.794052      1.958710      0.821062

