%chk=PFMS_1200K_step0180.chk
%mem=8GB
%nprocshared=4
# B3LYP/6-31G(d) pop=full density=current

PFMS Time step 180

0 1
C      -1.141893     -0.019466     -0.300428
F      -0.976143      0.097710     -1.564169
F      -1.668196      1.037382      0.324930
F      -1.697234     -1.112177      0.030027
S       0.882563     -0.098660      0.371035
O       1.120043     -0.259480      1.802239
O       1.458683     -1.089388     -0.705650
O       1.573227      1.413382     -0.205947
H       1.546055      1.905814      0.466075

