%chk=PFMS_1200K_step0190.chk
%mem=8GB
%nprocshared=4
# B3LYP/6-31G(d) pop=full density=current

PFMS Time step 190

0 1
C      -1.152913     -0.028892     -0.307093
F      -0.970869      0.095208     -1.556157
F      -1.673536      1.036044      0.321344
F      -1.696590     -1.106784      0.028613
S       0.887722     -0.090813      0.369302
O       1.124415     -0.265002      1.811053
O       1.449914     -1.090726     -0.711542
O       1.575648      1.407756     -0.203163
H       1.534100      1.937952      0.453087

