%chk=PFMS_1200K_step0136.chk
%mem=8GB
%nprocshared=4
# B3LYP/6-31G(d) pop=full density=current

PFMS Time step 136

0 1
C      -1.067148      0.028512     -0.256809
F      -1.002001      0.111975     -1.603023
F      -1.646294      1.042536      0.337246
F      -1.703777     -1.140620      0.038639
S       0.866276     -0.139462      0.357388
O       1.098693     -0.233478      1.767944
O       1.484663     -1.066633     -0.655932
O       1.554225      1.412280     -0.228394
H       1.598792      2.042704      0.829069

