%chk=PFMS_1200K_step0026.chk
%mem=8GB
%nprocshared=4
# B3LYP/6-31G(d) pop=full density=current

PFMS Time step 26

0 1
C      -0.914637      0.017899     -0.226868
F      -1.059928      0.166460     -1.616275
F      -1.577001      1.049649      0.355190
F      -1.670298     -1.142599      0.062362
S       0.854101     -0.170397      0.268035
O       1.012170     -0.176140      1.724916
O       1.540316     -1.057886     -0.539392
O       1.429199      1.351567     -0.179441
H       1.797912      1.941352      0.827925

