%chk=PFMS_1200K_step0152.chk
%mem=8GB
%nprocshared=4
# B3LYP/6-31G(d) pop=full density=current

PFMS Time step 152

0 1
C      -1.098169      0.011828     -0.274051
F      -0.992178      0.106168     -1.589150
F      -1.653999      1.040669      0.333292
F      -1.701289     -1.130404      0.035267
S       0.870922     -0.123961      0.366580
O       1.106861     -0.243077      1.778781
O       1.477569     -1.077654     -0.678098
O       1.562983      1.413157     -0.225046
H       1.577878      2.015059      0.745991

