%chk=PFMS_1200K_step0144.chk
%mem=8GB
%nprocshared=4
# B3LYP/6-31G(d) pop=full density=current

PFMS Time step 144

0 1
C      -1.083035      0.020514     -0.265470
F      -0.997048      0.108980     -1.596240
F      -1.650115      1.041576      0.335331
F      -1.702598     -1.135645      0.036939
S       0.868413     -0.131690      0.362571
O       1.102847     -0.238275      1.773084
O       1.481422     -1.072449     -0.667521
O       1.558860      1.412565     -0.227777
H       1.588545      2.036096      0.800591

