%chk=PFMS_1200K_step0024.chk
%mem=8GB
%nprocshared=4
# B3LYP/6-31G(d) pop=full density=current

PFMS Time step 24

0 1
C      -0.914915      0.016017     -0.228409
F      -1.060547      0.167564     -1.614923
F      -1.575083      1.049388      0.355340
F      -1.668542     -1.141373      0.062790
S       0.853835     -0.168737      0.267663
O       1.009903     -0.175360      1.723964
O       1.542685     -1.060706     -0.539887
O       1.426327      1.349669     -0.178098
H       1.796061      1.934560      0.823324

