%chk=PFMS_1200K_step0130.chk
%mem=8GB
%nprocshared=4
# B3LYP/6-31G(d) pop=full density=current

PFMS Time step 130

0 1
C      -1.054897      0.033909     -0.250499
F      -1.005768      0.114321     -1.607787
F      -1.643438      1.043278      0.338627
F      -1.704511     -1.144074      0.039916
S       0.864926     -0.145219      0.352800
O       1.095454     -0.229886      1.764480
O       1.486726     -1.061994     -0.646722
O       1.550415      1.412236     -0.227461
H       1.605851      2.038045      0.833166

