%chk=PFMS_1200K_step0098.chk
%mem=8GB
%nprocshared=4
# B3LYP/6-31G(d) pop=full density=current

PFMS Time step 98

0 1
C      -0.989620      0.051110     -0.222542
F      -1.025688      0.128399     -1.626874
F      -1.627815      1.047439      0.345232
F      -1.704914     -1.157025      0.046776
S       0.860778     -0.172519      0.320909
O       1.076122     -0.211318      1.751137
O       1.494266     -1.037078     -0.594213
O       1.525542      1.413714     -0.203609
H       1.630754      1.886069      0.617844

