%chk=PFMS_1200K_step0118.chk
%mem=8GB
%nprocshared=4
# B3LYP/6-31G(d) pop=full density=current

PFMS Time step 118

0 1
C      -1.029987      0.042881     -0.238574
F      -1.013321      0.119294     -1.616361
F      -1.637723      1.044794      0.341233
F      -1.705482     -1.150138      0.042489
S       0.862826     -0.156365      0.342024
O       1.088660     -0.222798      1.758601
O       1.490017     -1.052308     -0.627312
O       1.542005      1.412670     -0.221946
H       1.617937      2.003718      0.794754

