%chk=PFMS_1200K_step0008.chk
%mem=8GB
%nprocshared=4
# B3LYP/6-31G(d) pop=full density=current

PFMS Time step 8

0 1
C      -0.921551      0.000469     -0.242629
F      -1.064846      0.176266     -1.602511
F      -1.558812      1.046556      0.356292
F      -1.653182     -1.130378      0.066050
S       0.852130     -0.153730      0.266130
O       0.990905     -0.169572      1.716201
O       1.562391     -1.085654     -0.546009
O       1.403888      1.336014     -0.164811
H       1.758783      1.846518      0.737397

