%chk=CF2O_1000K_step0025.chk
%mem=8GB
%nprocshared=4
# B3LYP/6-31G(d) pop=full density=current

CF2O Time step 25

0 1
F       1.198349     -0.581029      0.047693
C       0.068869      0.070908     -0.057668
O       0.001208      1.338135     -0.080229
F      -1.242867     -0.590346      0.056277

