%chk=CF2O_1200K_step0122.chk
%mem=8GB
%nprocshared=4
# B3LYP/6-31G(d) pop=full density=current

CF2O Time step 122

0 1
F       1.294062     -0.587530      0.071641
C       0.163093      0.217183     -0.163803
O       0.017884      1.295919     -0.060050
F      -1.412133     -0.640695      0.082379

