%chk=CF2O_1200K_step0062.chk
%mem=8GB
%nprocshared=4
# B3LYP/6-31G(d) pop=full density=current

CF2O Time step 62

0 1
F       1.248598     -0.584816      0.061163
C       0.135089      0.105753     -0.120704
O       0.000968      1.345240     -0.066514
F      -1.334740     -0.614550      0.071077

