%chk=CF2O_1200K_step0074.chk
%mem=8GB
%nprocshared=4
# B3LYP/6-31G(d) pop=full density=current

CF2O Time step 74

0 1
F       1.261765     -0.586385      0.064660
C       0.147091      0.129797     -0.135954
O       0.002935      1.337067     -0.063565
F      -1.357144     -0.621287      0.074729

