%chk=CF2O_1200K_step0034.chk
%mem=8GB
%nprocshared=4
# B3LYP/6-31G(d) pop=full density=current

CF2O Time step 34

0 1
F       1.211700     -0.581560      0.051238
C       0.089088      0.072844     -0.074701
O       0.000392      1.344748     -0.076425
F      -1.268300     -0.596605      0.060288

