%chk=CF2O_1200K_step0098.chk
%mem=8GB
%nprocshared=4
# B3LYP/6-31G(d) pop=full density=current

CF2O Time step 98

0 1
F       1.282304     -0.588406      0.069696
C       0.159770      0.183261     -0.156422
O       0.009653      1.312799     -0.060426
F      -1.391347     -0.632604      0.079978

