%chk=CF2O_1200K_step0150.chk
%mem=8GB
%nprocshared=4
# B3LYP/6-31G(d) pop=full density=current

CF2O Time step 150

0 1
F       1.296059     -0.581986      0.069704
C       0.161609      0.199335     -0.157878
O       0.026066      1.308654     -0.061235
F      -1.420081     -0.645687      0.081571

