%chk=CF2O_1200K_step0114.chk
%mem=8GB
%nprocshared=4
# B3LYP/6-31G(d) pop=full density=current

CF2O Time step 114

0 1
F       1.291170     -0.588198      0.071372
C       0.162616      0.210141     -0.162752
O       0.015169      1.299222     -0.059957
F      -1.406654     -0.638360      0.081906

