%chk=CF2O_1200K_step0116.chk
%mem=8GB
%nprocshared=4
# B3LYP/6-31G(d) pop=full density=current

CF2O Time step 116

0 1
F       1.291985     -0.588062      0.071474
C       0.162780      0.212342     -0.163138
O       0.015860      1.298143     -0.059963
F      -1.408155     -0.638978      0.082053

