%chk=CF2O_1200K_step0026.chk
%mem=8GB
%nprocshared=4
# B3LYP/6-31G(d) pop=full density=current

CF2O Time step 26

0 1
F       1.199869     -0.581076      0.048097
C       0.071234      0.070917     -0.059613
O       0.001098      1.339023     -0.079794
F      -1.245787     -0.591052      0.056736

