%chk=CF2O_1200K_step0190.chk
%mem=8GB
%nprocshared=4
# B3LYP/6-31G(d) pop=full density=current

CF2O Time step 190

0 1
F       1.277192     -0.567463      0.059706
C       0.142624      0.117090     -0.120294
O       0.038532      1.351465     -0.068492
F      -1.399718     -0.644305      0.073939

