%chk=CF2O_1200K_step0132.chk
%mem=8GB
%nprocshared=4
# B3LYP/6-31G(d) pop=full density=current

CF2O Time step 132

0 1
F       1.296208     -0.586090      0.071472
C       0.163149      0.218175     -0.163475
O       0.021033      1.296246     -0.060282
F      -1.416967     -0.643037      0.082536

