%chk=CF2O_1200K_step0194.chk
%mem=8GB
%nprocshared=4
# B3LYP/6-31G(d) pop=full density=current

CF2O Time step 194

0 1
F       1.273991     -0.565824      0.058313
C       0.138932      0.110048     -0.114598
O       0.040093      1.354004     -0.069739
F      -1.395500     -0.643633      0.072784

