%chk=CF2O_1200K_step0170.chk
%mem=8GB
%nprocshared=4
# B3LYP/6-31G(d) pop=full density=current

CF2O Time step 170

0 1
F       1.289714     -0.575371      0.065659
C       0.155682      0.158849     -0.143553
O       0.031717      1.331831     -0.063727
F      -1.414751     -0.646243      0.078666

