%chk=CF2O_1200K_step0036.chk
%mem=8GB
%nprocshared=4
# B3LYP/6-31G(d) pop=full density=current

CF2O Time step 36

0 1
F       1.214581     -0.581726      0.052004
C       0.093225      0.073903     -0.078351
O       0.000267      1.345770     -0.075614
F      -1.273690     -0.597969      0.061145

