%chk=CF2O_1200K_step0182.chk
%mem=8GB
%nprocshared=4
# B3LYP/6-31G(d) pop=full density=current

CF2O Time step 182

0 1
F       1.282908     -0.570726      0.062281
C       0.148890      0.132938     -0.130590
O       0.035610      1.344722     -0.066314
F      -1.406933     -0.645375      0.076034

