%chk=CF2O_1200K_step0104.chk
%mem=8GB
%nprocshared=4
# B3LYP/6-31G(d) pop=full density=current

CF2O Time step 104

0 1
F       1.286080     -0.588493      0.070494
C       0.161244      0.194896     -0.159470
O       0.011698      1.306958     -0.060128
F      -1.397776     -0.634948      0.080854

