%chk=CF2O_1200K_step0192.chk
%mem=8GB
%nprocshared=4
# B3LYP/6-31G(d) pop=full density=current

CF2O Time step 192

0 1
F       1.275618     -0.566645      0.059016
C       0.140829      0.113497     -0.117484
O       0.039303      1.352804     -0.069104
F      -1.397660     -0.643981      0.073370

