%chk=CF2O_1200K_step0138.chk
%mem=8GB
%nprocshared=4
# B3LYP/6-31G(d) pop=full density=current

CF2O Time step 138

0 1
F       1.296753     -0.584938      0.071076
C       0.162843      0.214585     -0.162269
O       0.022806      1.298901     -0.060532
F      -1.418811     -0.644157      0.082380

