%chk=CF2O_1200K_step0128.chk
%mem=8GB
%nprocshared=4
# B3LYP/6-31G(d) pop=full density=current

CF2O Time step 128

0 1
F       1.295547     -0.586751      0.071609
C       0.163232      0.218850     -0.163841
O       0.019785      1.295494     -0.060169
F      -1.415307     -0.642168      0.082535

