%chk=CF2O_1200K_step0148.chk
%mem=8GB
%nprocshared=4
# B3LYP/6-31G(d) pop=full density=current

CF2O Time step 148

0 1
F       1.296334     -0.582531      0.069990
C       0.161892      0.202525     -0.158820
O       0.025539      1.306679     -0.061085
F      -1.420091     -0.645494      0.081754

