%chk=CF2O_1200K_step0180.chk
%mem=8GB
%nprocshared=4
# B3LYP/6-31G(d) pop=full density=current

CF2O Time step 180

0 1
F       1.284188     -0.571519      0.062887
C       0.150245      0.137108     -0.132971
O       0.034921      1.342782     -0.065822
F      -1.408488     -0.645581      0.076517

