%chk=CF2O_1200K_step0162.chk
%mem=8GB
%nprocshared=4
# B3LYP/6-31G(d) pop=full density=current

CF2O Time step 162

0 1
F       1.293026     -0.578234      0.067538
C       0.158724      0.176261     -0.150406
O       0.029376      1.322269     -0.062473
F      -1.418012     -0.646326      0.080060

