%chk=CF2O_1200K_step0086.chk
%mem=8GB
%nprocshared=4
# B3LYP/6-31G(d) pop=full density=current

CF2O Time step 86

0 1
F       1.273105     -0.587673      0.067544
C       0.155014      0.156834     -0.147934
O       0.005908      1.325476     -0.061543
F      -1.375990     -0.627317      0.077709

