%chk=CF2O_1200K_step0118.chk
%mem=8GB
%nprocshared=4
# B3LYP/6-31G(d) pop=full density=current

CF2O Time step 118

0 1
F       1.292739     -0.587904      0.071551
C       0.162904      0.214253     -0.163433
O       0.016548      1.297231     -0.059984
F      -1.409567     -0.639574      0.082180

