%chk=CF2O_1200K_step0188.chk
%mem=8GB
%nprocshared=4
# B3LYP/6-31G(d) pop=full density=current

CF2O Time step 188

0 1
F       1.278710     -0.568284      0.060376
C       0.144325      0.120853     -0.123006
O       0.037777      1.349976     -0.067907
F      -1.401676     -0.644607      0.074490

