%chk=CF2O_1200K_step0028.chk
%mem=8GB
%nprocshared=4
# B3LYP/6-31G(d) pop=full density=current

CF2O Time step 28

0 1
F       1.202876     -0.581180      0.048896
C       0.075869      0.071096     -0.063462
O       0.000897      1.340688     -0.078934
F      -1.251553     -0.592463      0.057643

