%chk=CF2O_1200K_step0120.chk
%mem=8GB
%nprocshared=4
# B3LYP/6-31G(d) pop=full density=current

CF2O Time step 120

0 1
F       1.293433     -0.587728      0.071606
C       0.163003      0.215879     -0.163651
O       0.017225      1.296483     -0.060015
F      -1.410893     -0.640148      0.082288

