%chk=CF2O_1200K_step0174.chk
%mem=8GB
%nprocshared=4
# B3LYP/6-31G(d) pop=full density=current

CF2O Time step 174

0 1
F       1.287677     -0.573870      0.064600
C       0.153772      0.150069     -0.139567
O       0.032956      1.336428     -0.064501
F      -1.412551     -0.646069      0.077859

