%chk=CF2O_1200K_step0108.chk
%mem=8GB
%nprocshared=4
# B3LYP/6-31G(d) pop=full density=current

CF2O Time step 108

0 1
F       1.288316     -0.588454      0.070913
C       0.161895      0.201717     -0.161030
O       0.013091      1.303502     -0.060022
F      -1.401596     -0.636386      0.081332

