%chk=CF2O_1200K_step0164.chk
%mem=8GB
%nprocshared=4
# B3LYP/6-31G(d) pop=full density=current

CF2O Time step 164

0 1
F       1.292290     -0.577541      0.067102
C       0.158070      0.171954     -0.148846
O       0.029938      1.324691     -0.062746
F      -1.417337     -0.646338      0.079741

