%chk=CF2O_1200K_step0186.chk
%mem=8GB
%nprocshared=4
# B3LYP/6-31G(d) pop=full density=current

CF2O Time step 186

0 1
F       1.280169     -0.569106      0.061027
C       0.145937      0.124780     -0.125617
O       0.037037      1.348341     -0.067354
F      -1.403529     -0.644888      0.075022

