%chk=CF2O_1200K_step0134.chk
%mem=8GB
%nprocshared=4
# B3LYP/6-31G(d) pop=full density=current

CF2O Time step 134

0 1
F       1.296448     -0.585724      0.071363
C       0.163072      0.217311     -0.163152
O       0.021641      1.296934     -0.060357
F      -1.417669     -0.643436      0.082504

