%chk=CF2O_1200K_step0054.chk
%mem=8GB
%nprocshared=4
# B3LYP/6-31G(d) pop=full density=current

CF2O Time step 54

0 1
F       1.238844     -0.583753      0.058538
C       0.124629      0.092580     -0.108872
O       0.000248      1.348134     -0.068968
F      -1.317773     -0.609728      0.068294

