%chk=CF2O_1200K_step0042.chk
%mem=8GB
%nprocshared=4
# B3LYP/6-31G(d) pop=full density=current

CF2O Time step 42

0 1
F       1.223019     -0.582312      0.054251
C       0.104874      0.078355     -0.088990
O       0.000047      1.347944     -0.073268
F      -1.289300     -0.602025      0.063643

