%chk=CF2O_1200K_step0078.chk
%mem=8GB
%nprocshared=4
# B3LYP/6-31G(d) pop=full density=current

CF2O Time step 78

0 1
F       1.265775     -0.586868      0.065693
C       0.150172      0.138618     -0.140318
O       0.003810      1.333509     -0.062789
F      -1.363836     -0.623380      0.075799

