%chk=CF2O_1200K_step0082.chk
%mem=8GB
%nprocshared=4
# B3LYP/6-31G(d) pop=full density=current

CF2O Time step 82

0 1
F       1.269560     -0.587303      0.066662
C       0.152767      0.147710     -0.144330
O       0.004814      1.329593     -0.062112
F      -1.370106     -0.625392      0.076795

