%chk=CF2O_1200K_step0136.chk
%mem=8GB
%nprocshared=4
# B3LYP/6-31G(d) pop=full density=current

CF2O Time step 136

0 1
F       1.296631     -0.585340      0.071230
C       0.162972      0.216110     -0.162745
O       0.022232      1.297824     -0.060441
F      -1.418286     -0.643810      0.082451

