%chk=CF2O_1200K_step0066.chk
%mem=8GB
%nprocshared=4
# B3LYP/6-31G(d) pop=full density=current

CF2O Time step 66

0 1
F       1.253166     -0.585351      0.062382
C       0.139653      0.113266     -0.126111
O       0.001494      1.343005     -0.065437
F      -1.342634     -0.616879      0.072366

