%mem=3GB
%nprocshared=4
# opt=(maxcyc=999,noeigen) freq m062x/def2tzvp geom=connectivity int=ultrafine scf=(tight,xqc)

Title Card Required

0 1
 C                 -6.15384635   -0.62130177    0.00000000
 C                 -5.64053064   -2.07323392    0.00000000
 C                 -4.10053064   -2.07325212   -0.00000123
 H                 -3.74385905   -1.57054933   -0.87462989
 H                 -3.74385710   -1.56715943    0.87266948
 C                 -3.58721492   -3.52518154    0.00281556
 H                 -3.94425450   -4.03140291   -0.86963081
 H                 -3.94352099   -4.02775431    0.87766789
 F                 -7.50384635   -0.62128513    0.00000000
 F                 -5.70383856    0.01508847    1.10227059
 F                 -5.70383856    0.01508847   -1.10227059
 F                 -6.09053899   -2.70962504   -1.10226985
 F                 -6.09053794   -2.70962399    1.10227088
 I                 -1.48721510   -3.52520813    0.00193473

 1 2 1.0 9 1.0 10 1.0 11 1.0
 2 3 1.0 12 1.0 13 1.0
 3 4 1.0 5 1.0 6 1.0
 4
 5
 6 7 1.0 8 1.0 14 1.0
 7
 8
 9
 10
 11
 12
 13
 14

